892.852 306.465 13.7394
10.0 306.465 13.7394 -3.434022 2.427934
30.0 306.475 13.7283 -4.49424 3.163682
50.0 306.494 13.7102 -5.51233 3.910918
70.0 306.522 13.685 -6.34558 4.587824
90.0 306.564 13.6484 -7.09047 5.202344
110.0 306.644 13.5816 -7.64097 5.752556
130.0 306.789 13.4722 -7.858584 6.149254
150.0 306.864 13.4217 -8.004268 6.442568
170.0 306.927 13.38 -7.974796 6.642946
190.0 306.99 13.3383 -7.945314 6.84333
210.0 307.043 13.2979 -7.836796 7.018258
230.0 307.095 13.2577 -7.717694 7.189786
250.0 307.128 13.2307 -7.595548 7.375388
270.0 307.149 13.212 -7.47139 7.570262
290.0 307.177 13.1838 -7.337408 7.755278
310.0 307.216 13.1372 -7.182842 7.919632
331.688 307.259 13.0893 -7.020242 8.096698
356.753 307.298 13.0574 -6.875568 8.291266
385.195 307.343 13.0215 -6.710308 8.485162
417.013 307.395 12.9827 -6.52332 8.650552
452.208 307.45 12.9446 -6.313894 8.760968
490.779 307.501 12.9141 -6.01086 8.865156
532.727 307.553 12.8795 -5.687398 9.072518
578.052 307.625 12.8261 -5.458034 9.427422
626.753 307.724 12.7608 -5.228246 9.755266
678.831 307.834 12.6877 -4.843232 9.96134
734.286 307.942 12.595 -4.3783892 10.146746
793.117 308.051 12.5138 -3.8775652 10.233388
855.325 308.191 12.4273 -3.125516 10.227572
920.909 308.403 12.2755 -2.18198 10.415856
989.87 308.681 12.0777 -1.395052 10.627212
1062.21 309.012 11.8039 -0.59722 10.861894
1137.92 309.328 11.4652 0.20548 10.856568
1217.01 309.673 11.0502 1.138658 10.948658
1299.48 310.02 10.5741 1.993806 11.34964
1385.32 310.416 9.98716 2.46277214 11.43962
1474.55 310.854 9.41205 3.2149626 11.41628
1567.14 311.25 8.9559 4.26587 11.3843
1663.12 311.55 8.53037 5.043356 11.22144
1762.47 311.97 7.84578 5.89114 10.90076
1865.19 312.338 7.29615 7.039268 10.63738
1971.3 312.853 6.70909 8.568712 10.281732
2080.78 313.116 6.2318 9.503048 9.865212
2193.64 313.309 5.9279 10.62504 9.48682
2309.87 313.701 5.41552 11.66666 9.057002
2429.48 314.066 5.03534 11.94458 8.711504
2552.47 314.299 4.9296 12.5962 8.28428
2678.83 314.48 4.72413 12.8399 8.4029
2808.57 314.671 4.57608 13.6836 8.10896
2941.69 314.887 4.41032 14.194 7.95273
3078.18 315.097 4.24994 14.6889 7.57382
3218.05 315.343 4.0399 15.4204 7.56788
3361.3 315.637 3.98217 16.0316 7.34104
3507.92 315.81 3.77932 16.7659 7.3913
3657.92 316.142 3.44303 17.0697 7.3477
3811.3 316.684 3.25461 17.831 7.32098
3968.05 317.238 2.92848 18.6772 7.41581
4128.18 317.801 2.6217 19.3946 7.35793
4291.69 318.391 2.3874 19.7745 7.83
4458.57 318.86 2.31662 20.3151 7.57428
4628.83 319.408 2.0143 21.8501 7.50145
4802.47 319.954 1.94449 22.3977 7.21206
4979.48 320.562 1.87345 23.2146 6.70146
5159.87 321.31 1.63014 24.3383 6.65703
5343.64 321.823 1.60308 25.1866 6.03304
5530.78 322.63 1.46316 26.0214 5.27459
5721.3 323.279 1.31052 27.2761 5.25651
5915.19 324.128 1.11612 27.6138 5.18236
6112.47 324.849 1.00613 28.4494 5.27441
6313.12 325.914 0.944724 28.7352 5.10938
6517.14 326.915 0.77252 28.9309 4.79992
6724.55 327.887 0.602893 29.8009 4.51376
6935.33 328.662 0.509564 30.1314 4.56665
7149.48 329.278 0.418299 30.3493 4.0871
7367.01 329.819 0.374555 30.6335 3.60541
7587.92 330.519 0.359266 30.8358 3.51134
7812.21 331.098 0.324554 31.6571 3.36803
8039.87 331.638 0.302485 31.8882 3.10404
8270.91 332.386 0.267165 32.4356 2.88193
8505.32 333.074 0.251879 32.9774 2.38546
8743.12 333.424 0.23437 33.6071 1.84605
8984.29 333.976 0.157183 34.2335 1.66502
9228.83 334.627 0.130234 34.48 0.779481
9476.75 335.395 0.125693 35.8104 0.775408
9728.05 336.025 0.117153 37.5631 0.964548
9982.73 336.849 0.0999141 36.8932 1.66336
10240.8 337.736 0.0837148 36.24 2.11784
10502.2 338.613 0.0729608 36.1241 2.76468
10767.0 340.986 0.0696476 36.2362 0.229617
11035.2 342.665 0.0595883 37.8599 2.51929
11306.8 342.665 0.0392409 37.8599 2.51929
11581.7 342.665 0.0246646 37.8599 2.51929
11860.0 342.665 0.0148897 37.8599 2.51929
12140.0 344.465 0.0100004 37.8599 2.51929
12420.0 350.065 0.0100006 37.8599 2.51929
12700.0 355.665 0.01 37.8599 2.51929
12980.0 361.265 0.0100004 37.8599 2.51929
13260.0 366.865 0.0100003 37.8599 2.51929
13540.0 372.465 0.0100002 37.8599 2.51929
13820.0 378.065 0.0100003 37.8599 2.51929
14100.0 383.665 0.01 37.8599 2.51929
14380.0 389.265 0.0100002 37.8599 2.51929
14660.0 394.865 0.0100001 37.8599 2.51929
14940.0 400.465 0.0100001 37.8599 2.51929
15220.0 406.065 0.0100001 37.8599 2.51929
15500.0 411.665 0.01 37.8599 2.51929
15780.0 417.265 0.0100001 37.8599 2.51929
16060.0 422.865 0.01 37.8599 2.51929
16340.0 428.465 0.01 37.8599 2.51929
16620.0 434.065 0.01 37.8599 2.51929
16900.0 439.665 0.01 37.8599 2.51929
17180.0 445.265 0.00999997 37.8599 2.51929
17460.0 450.865 0.00999999 37.8599 2.51929
17740.0 456.465 0.00999998 37.8599 2.51929
18020.0 462.065 0.00999994 37.8599 2.51929
